Version 4.1
SHEET 1 880 680
WIRE 128 48 48 48
WIRE 144 48 128 48
WIRE 304 48 144 48
WIRE 48 80 48 48
WIRE 144 112 144 48
WIRE 304 112 304 48
WIRE 144 208 144 192
WIRE 304 208 304 192
WIRE 304 352 304 336
WIRE 416 352 304 352
WIRE 208 400 144 400
WIRE 416 432 416 352
WIRE 416 432 384 432
WIRE 208 480 208 400
WIRE 208 480 192 480
FLAG 48 160 0
FLAG 128 48 3v3
FLAG 320 416 0
FLAG 128 464 0
FLAG 128 496 0
FLAG 320 448 0
SYMBOL res 128 96 R0
SYMATTR InstName R1
SYMATTR Value 62
SYMBOL res 288 96 R0
SYMATTR InstName R2
SYMATTR Value 91
SYMBOL diode 128 208 R0
SYMATTR InstName D1
SYMBOL diode 288 208 R0
SYMATTR InstName D2
SYMBOL voltage 48 64 R0
WINDOW 123 0 0 Left 0
WINDOW 39 0 0 Left 0
SYMATTR InstName V1
SYMATTR Value 3.3
SYMBOL diode 128 272 R0
SYMATTR InstName D3
SYMBOL diode 288 272 R0
SYMATTR InstName D4
SYMBOL diode 128 336 R0
SYMATTR InstName D5
SYMBOL NMOS_SSM3K16FV 160 480 R180
SYMATTR InstName U1
SYMBOL NMOS_SSM3K16FV 352 432 R180
SYMATTR InstName U2
TEXT 8 296 Left 2 !.tran 0 1 0 1m
